
     RDKit          3D

 21 21  0  0  0  0  0  0  0  0999 V2000
    3.3650   -0.2684   -0.7065 C   0  0  0  0  0  0  0  0  0  0  0  0
    2.0940    0.0240    0.0333 C   0  0  0  0  0  0  0  0  0  0  0  0
    1.9733   -0.0305    1.2505 O   0  0  0  0  0  0  0  0  0  0  0  0
    1.1124    0.3835   -0.8836 O   0  0  0  0  0  0  0  0  0  0  0  0
   -0.1342    0.5856   -0.2842 C   0  0  0  0  0  0  0  0  0  0  0  0
   -0.5047    1.9109   -0.0338 C   0  0  0  0  0  0  0  0  0  0  0  0
   -1.7467    2.1838    0.5360 C   0  0  0  0  0  0  0  0  0  0  0  0
   -2.6174    1.1384    0.8420 C   0  0  0  0  0  0  0  0  0  0  0  0
   -2.2514   -0.1846    0.5727 C   0  0  0  0  0  0  0  0  0  0  0  0
   -1.0046   -0.4772   -0.0019 C   0  0  0  0  0  0  0  0  0  0  0  0
   -0.6210   -1.8784   -0.3175 C   0  0  0  0  0  0  0  0  0  0  0  0
    0.3883   -2.2539   -0.8849 O   0  0  0  0  0  0  0  0  0  0  0  0
   -1.5411   -2.7713    0.0960 O   0  0  0  0  0  0  0  0  0  0  0  0
    4.1255   -0.6090    0.0019 H   0  0  0  0  0  0  0  0  0  0  0  0
    3.7238    0.6389   -1.1985 H   0  0  0  0  0  0  0  0  0  0  0  0
    3.1951   -1.0624   -1.4381 H   0  0  0  0  0  0  0  0  0  0  0  0
    0.1739    2.7247   -0.2734 H   0  0  0  0  0  0  0  0  0  0  0  0
   -2.0359    3.2112    0.7437 H   0  0  0  0  0  0  0  0  0  0  0  0
   -3.5857    1.3516    1.2893 H   0  0  0  0  0  0  0  0  0  0  0  0
   -2.9522   -0.9807    0.8142 H   0  0  0  0  0  0  0  0  0  0  0  0
   -1.1563   -3.6364   -0.1573 H   0  0  0  0  0  0  0  0  0  0  0  0
  1  2  1  0
  2  3  2  0
  2  4  1  0
  4  5  1  0
  5  6  2  0
  6  7  1  0
  7  8  2  0
  8  9  1  0
  9 10  2  0
 10 11  1  0
 11 12  2  0
 11 13  1  0
 10  5  1  0
  1 14  1  0
  1 15  1  0
  1 16  1  0
  6 17  1  0
  7 18  1  0
  8 19  1  0
  9 20  1  0
 13 21  1  0
M  END
$$$$
