
     RDKit          3D

 21 21  0  0  0  0  0  0  0  0999 V2000
   -3.0032   -2.1850   -0.0872 C   0  0  0  0  0  0  0  0  0  0  0  0
   -2.1957   -0.9808    0.2590 C   0  0  0  0  0  0  0  0  0  0  0  0
   -2.6848   -0.1038    1.0215 O   0  0  0  0  0  0  0  0  0  0  0  0
   -0.8679   -0.8979   -0.1798 O   0  0  0  0  0  0  0  0  0  0  0  0
   -0.0692    0.2568   -0.1396 C   0  0  0  0  0  0  0  0  0  0  0  0
   -0.6402    1.5351   -0.2966 C   0  0  0  0  0  0  0  0  0  0  0  0
    0.1588    2.6783   -0.2698 C   0  0  0  0  0  0  0  0  0  0  0  0
    1.5362    2.5632   -0.0976 C   0  0  0  0  0  0  0  0  0  0  0  0
    2.1221    1.3040    0.0398 C   0  0  0  0  0  0  0  0  0  0  0  0
    1.3349    0.1366    0.0154 C   0  0  0  0  0  0  0  0  0  0  0  0
    2.0006   -1.1839    0.1641 C   0  0  0  0  0  0  0  0  0  0  0  0
    1.3307   -2.2515    0.1718 O   0  0  0  0  0  0  0  0  0  0  0  0
    3.3851   -1.2564    0.2989 O   0  0  0  0  0  0  0  0  0  0  0  0
   -2.6504   -2.6124   -1.0491 H   0  0  0  0  0  0  0  0  0  0  0  0
   -4.0746   -1.9111   -0.1883 H   0  0  0  0  0  0  0  0  0  0  0  0
   -2.8927   -2.9466    0.7125 H   0  0  0  0  0  0  0  0  0  0  0  0
   -1.7014    1.6507   -0.4704 H   0  0  0  0  0  0  0  0  0  0  0  0
   -0.2906    3.6554   -0.3922 H   0  0  0  0  0  0  0  0  0  0  0  0
    2.1539    3.4520   -0.0787 H   0  0  0  0  0  0  0  0  0  0  0  0
    3.1961    1.2469    0.1649 H   0  0  0  0  0  0  0  0  0  0  0  0
    3.8523   -2.1495    0.4015 H   0  0  0  0  0  0  0  0  0  0  0  0
  1  2  1  0
  2  3  2  0
  2  4  1  0
  4  5  1  0
  5  6  2  0
  6  7  1  0
  7  8  2  0
  8  9  1  0
  9 10  2  0
 10 11  1  0
 11 12  2  0
 11 13  1  0
 10  5  1  0
  1 14  1  0
  1 15  1  0
  1 16  1  0
  6 17  1  0
  7 18  1  0
  8 19  1  0
  9 20  1  0
 13 21  1  0
M  END
$$$$
